8
	Energy:     -65.2069379
S         -3.01799        1.58115       -0.43872
S         -1.40708        2.40096        0.51487
S          0.23897        1.89898       -0.58749
S          1.12063        0.32244        0.36837
S         -3.48725       -0.12900        0.57699
S         -2.70015       -1.67878       -0.49776
S         -0.95941       -2.20755        0.43331
S          0.55694       -1.36099       -0.64394
